Version 4
SHEET 1 1396 840
WIRE -256 -112 -256 -128
WIRE -256 -112 -672 -112
WIRE -256 -96 -256 -112
WIRE 16 -96 -256 -96
WIRE 208 -96 16 -96
WIRE 336 -96 208 -96
WIRE 464 -96 336 -96
WIRE 688 -96 464 -96
WIRE 1040 -96 784 -96
WIRE 1216 -96 1040 -96
WIRE 1360 -96 1216 -96
WIRE 704 32 704 -48
WIRE 704 32 624 32
WIRE 16 80 16 -96
WIRE 208 80 208 -96
WIRE 336 80 336 -96
WIRE 624 80 624 32
WIRE 704 80 704 32
WIRE 464 96 464 -96
WIRE 1216 144 1216 -96
WIRE 1040 192 1040 -96
WIRE -176 224 -400 224
WIRE 16 224 16 160
WIRE 16 224 -96 224
WIRE 96 224 16 224
WIRE 208 224 208 160
WIRE 208 224 160 224
WIRE 336 224 336 144
WIRE 336 224 208 224
WIRE 464 224 464 160
WIRE 464 224 336 224
WIRE 624 224 624 144
WIRE 624 224 464 224
WIRE 704 224 704 160
WIRE 704 224 624 224
WIRE -672 240 -672 -112
WIRE -400 272 -400 224
WIRE -400 272 -416 272
WIRE -224 272 -320 272
WIRE 704 272 704 224
WIRE -320 288 -320 272
WIRE -224 288 -224 272
WIRE -160 288 -160 272
WIRE -160 288 -224 288
WIRE -672 384 -672 320
WIRE -320 384 -320 368
WIRE -112 384 -112 272
WIRE -112 384 -320 384
WIRE -320 416 -320 384
WIRE 704 416 704 352
WIRE 16 464 16 224
WIRE 864 496 752 496
WIRE 1040 496 1040 256
WIRE 1040 496 864 496
WIRE 1104 496 1040 496
WIRE 1216 496 1216 224
WIRE 1216 496 1184 496
WIRE 1264 496 1216 496
WIRE 1392 496 1344 496
WIRE 864 560 864 496
WIRE 704 672 704 512
WIRE 864 672 864 624
WIRE 864 672 704 672
WIRE 704 704 704 672
WIRE 16 816 16 528
WIRE 1216 816 1216 496
WIRE 1216 816 16 816
FLAG 704 704 0
FLAG -672 384 0
FLAG -320 416 0
FLAG -400 272 0
SYMBOL res 0 64 R0
SYMATTR InstName R1
SYMATTR Value 10k
SYMBOL res 192 64 R0
SYMATTR InstName R2
SYMATTR Value 100k
SYMBOL res 688 64 R0
SYMATTR InstName R3
SYMATTR Value 100k
SYMBOL res 688 256 R0
SYMATTR InstName R
SYMATTR Value 100k
SYMBOL res 1200 480 R90
WINDOW 0 0 56 VBottom 2
WINDOW 3 32 56 VTop 2
SYMATTR InstName R5
SYMATTR Value 300k
SYMBOL res 1200 128 R0
SYMATTR InstName R6
SYMATTR Value 100k
SYMBOL cap 448 96 R0
SYMATTR InstName C1
SYMATTR Value 100n
SYMBOL cap 160 208 R90
WINDOW 0 0 32 VBottom 2
WINDOW 3 32 32 VTop 2
SYMATTR InstName C2
SYMATTR Value 1µ
SYMBOL cap 1024 192 R0
SYMATTR InstName C3
SYMATTR Value 2.2µ
SYMBOL pmos 784 -48 M270
SYMATTR InstName M2
SYMATTR Value IRF7309P
SYMBOL nmos 752 416 M0
SYMATTR InstName M1
SYMATTR Value IRF7309N
SYMBOL diode 640 144 R180
WINDOW 0 24 64 Left 2
WINDOW 3 24 0 Left 2
SYMATTR InstName D1
SYMATTR Value BAV99HY
SYMBOL diode 32 528 R180
WINDOW 0 24 64 Left 2
WINDOW 3 24 0 Left 2
SYMATTR InstName D3
SYMATTR Value BAV99HY
SYMBOL zener 352 144 R180
WINDOW 0 24 64 Left 2
WINDOW 3 24 0 Left 2
SYMATTR InstName D2
SYMATTR Value CDZV15B
SYMBOL zener 880 624 R180
WINDOW 0 24 64 Left 2
WINDOW 3 24 0 Left 2
SYMATTR InstName D4
SYMATTR Value CDZV15B
SYMBOL res 1360 480 R90
WINDOW 0 0 56 VBottom 2
WINDOW 3 32 56 VTop 2
SYMATTR InstName R7
SYMATTR Value 1k
SYMBOL voltage -672 224 R0
WINDOW 123 0 0 Left 0
WINDOW 39 0 0 Left 0
SYMATTR InstName V1
SYMATTR Value 20
SYMBOL voltage -320 272 R0
WINDOW 123 0 0 Left 0
WINDOW 39 0 0 Left 0
SYMATTR InstName V2
SYMATTR Value PULSE(0 5 0 0.01 0.01 5 10 2)
SYMBOL sw -80 224 M270
SYMATTR InstName S1
SYMATTR Value MYSW
TEXT -776 520 Left 2 !.model MYSW SW(Ron=1 Roff=1Meg Vt=.5 Vh=-.4)
TEXT -776 824 Left 2 !.tran 0 20 0 .01
